Circuit: * D:\Projekte\Schienensystem\B_Simulation\LTSpice\Strommessung\LT1990.asc

WARNING: Less than two connections to node N004.  This node is used by R:U1:7.
WARNING: Less than two connections to node N002.  This node is used by R:U1:10.
Instance "m:u2:114": Length shorter than recommended for a level 1 MOSFET.
Instance "m:u2:113": Length shorter than recommended for a level 1 MOSFET.
Instance "m:u2:2": Length shorter than recommended for a level 1 MOSFET.
Instance "m:u2:1": Length shorter than recommended for a level 1 MOSFET.
Instance "m:u2:9c": Length shorter than recommended for a level 1 MOSFET.
Instance "m:u2:9": Length shorter than recommended for a level 1 MOSFET.
Instance "m:u2:8": Length shorter than recommended for a level 1 MOSFET.
Instance "m:u2:4": Length shorter than recommended for a level 1 MOSFET.
Instance "m:u2:3": Length shorter than recommended for a level 1 MOSFET.
Instance "m:u2:7": Length shorter than recommended for a level 1 MOSFET.
Direct Newton iteration failed to find .op point.  (Use ".option noopiter" to skip.)
Starting Gmin stepping
Gmin = 10
Gmin = 1.07374
Gmin = 0.115292
Gmin = 0.0123794
Gmin = 0.00132923
Gmin = 0.000142725
vernier = 0.5
vernier = 0.25
vernier = 0.125
vernier = 0.0625
Gmin = 0.000153741
vernier = 0.03125
vernier = 0.015625
vernier = 0.0078125
vernier = 0.00390625
Gmin = 0.000155535
vernier = 0.00195313
vernier = 0.000976563
vernier = 0.000488281
Gmin = 0
Gmin stepping failed

Starting source stepping with srcstepmethod=0
Source Step = 3.0303%
Source Step = 33.3333%
Source Step = 63.6364%
Source Step = 93.9394%
Source stepping succeeded in finding the operating point.


Date: Sun Nov 22 14:52:55 2015
Total elapsed time: 1.630 seconds.

tnom = 27
temp = 27
method = modified trap
totiter = 4216
traniter = 2113
tranpoints = 1044
accept = 1044
rejected = 0
matrix size = 98
fillins = 129
solver = Normal
Matrix Compiler1: 13,8 KB object code size  6.2/2.4/[1.7]
Matrix Compiler2: 11,0 KB object code size  4.1/5.2/[2.5]


