Circuit: * D:\Christian\Projekt\Schienensystem\B_Simulation\LTSpice\Strommessung\Pi_Filter.asc


Date: Fri Feb 26 21:31:28 2016
Total elapsed time: 0.015 seconds.

tnom = 27
temp = 27
method = trap
totiter = 0
traniter = 0
tranpoints = 0
accept = 0
rejected = 0
matrix size = 3
fillins = 0
solver = Normal

