Circuit: * D:\Projekte\Schienensystem\B_Simulation\LTSpice\Strommessung\Sallen-Key-Filter.asc

Instance "m:u1:114": Length shorter than recommended for a level 1 MOSFET.
Instance "m:u1:113": Length shorter than recommended for a level 1 MOSFET.
Instance "m:u1:2": Length shorter than recommended for a level 1 MOSFET.
Instance "m:u1:1": Length shorter than recommended for a level 1 MOSFET.
Instance "m:u1:9c": Length shorter than recommended for a level 1 MOSFET.
Instance "m:u1:9": Length shorter than recommended for a level 1 MOSFET.
Instance "m:u1:8": Length shorter than recommended for a level 1 MOSFET.
Instance "m:u1:4": Length shorter than recommended for a level 1 MOSFET.
Instance "m:u1:3": Length shorter than recommended for a level 1 MOSFET.
Instance "m:u1:7": Length shorter than recommended for a level 1 MOSFET.
Direct Newton iteration failed to find .op point.  (Use ".option noopiter" to skip.)
Starting Gmin stepping
Gmin = 10
Gmin = 1.07374
Gmin = 0.115292
Gmin = 0.0123794
Gmin = 0.00132923
Gmin = 0.000142725
vernier = 0.5
vernier = 0.25
vernier = 0.125
vernier = 0.0625
vernier = 0.03125
Gmin = 0.000173
vernier = 0.015625
vernier = 0.0078125
vernier = 0.00390625
vernier = 0.00195313
Gmin = 0.000171491
vernier = 0.000976563
vernier = 0.000488281
Gmin = 0
Gmin stepping succeeded in finding the operating point.


Date: Wed Nov 25 17:04:23 2015
Total elapsed time: 0.135 seconds.

tnom = 27
temp = 27
method = trap
totiter = 1595
traniter = 0
tranpoints = 0
accept = 0
rejected = 0
matrix size = 88
fillins = 104
solver = Normal
Matrix Compiler1:     685 opcodes
Matrix Compiler2: off  [2.6]/4.1/4.2


