Circuit: * D:\Christian\Projekt\Multiphase\B_Hardware\Temperaturmessung\Simulation\LTSpice\Pi-Filter.asc

C2: Increased Cpar to 6.375e-012
C1: Increased Cpar to 6.375e-012
Limiting rise time of source v1 to 0.0001
Limiting fall time of source v1 to 0.0001

Date: Sat Jul 29 11:23:38 2017
Total elapsed time: 0.028 seconds.

tnom = 27
temp = 27
method = trap
totiter = 0
traniter = 0
tranpoints = 0
accept = 0
rejected = 0
matrix size = 3
fillins = 1
solver = Normal

