Circuit: * D:\Christian\Projekt\Multiphase\B_Hardware\Temperaturmessung\Simulation\LTSpice\PT1000_Circuit_v04.asc

Instance "m:u3:114": Length shorter than recommended for a level 1 MOSFET.
Instance "m:u3:113": Length shorter than recommended for a level 1 MOSFET.
Instance "m:u3:2": Length shorter than recommended for a level 1 MOSFET.
Instance "m:u3:1": Length shorter than recommended for a level 1 MOSFET.
Instance "m:u3:9c": Length shorter than recommended for a level 1 MOSFET.
Instance "m:u3:9": Length shorter than recommended for a level 1 MOSFET.
Instance "m:u3:8": Length shorter than recommended for a level 1 MOSFET.
Instance "m:u3:4": Length shorter than recommended for a level 1 MOSFET.
Instance "m:u3:3": Length shorter than recommended for a level 1 MOSFET.
Instance "m:u3:7": Length shorter than recommended for a level 1 MOSFET.
Instance "m:u2:114": Length shorter than recommended for a level 1 MOSFET.
Instance "m:u2:113": Length shorter than recommended for a level 1 MOSFET.
Instance "m:u2:2": Length shorter than recommended for a level 1 MOSFET.
Instance "m:u2:1": Length shorter than recommended for a level 1 MOSFET.
Instance "m:u2:9c": Length shorter than recommended for a level 1 MOSFET.
Instance "m:u2:9": Length shorter than recommended for a level 1 MOSFET.
Instance "m:u2:8": Length shorter than recommended for a level 1 MOSFET.
Instance "m:u2:4": Length shorter than recommended for a level 1 MOSFET.
Instance "m:u2:3": Length shorter than recommended for a level 1 MOSFET.
Instance "m:u2:7": Length shorter than recommended for a level 1 MOSFET.
Instance "m:u1:114": Length shorter than recommended for a level 1 MOSFET.
Instance "m:u1:113": Length shorter than recommended for a level 1 MOSFET.
Instance "m:u1:2": Length shorter than recommended for a level 1 MOSFET.
Instance "m:u1:1": Length shorter than recommended for a level 1 MOSFET.
Instance "m:u1:9c": Length shorter than recommended for a level 1 MOSFET.
Instance "m:u1:9": Length shorter than recommended for a level 1 MOSFET.
Instance "m:u1:8": Length shorter than recommended for a level 1 MOSFET.
Instance "m:u1:4": Length shorter than recommended for a level 1 MOSFET.
Instance "m:u1:3": Length shorter than recommended for a level 1 MOSFET.
Instance "m:u1:7": Length shorter than recommended for a level 1 MOSFET.
Direct Newton iteration failed to find .op point.  (Use ".option noopiter" to skip.)
Starting Gmin stepping
Gmin = 10
Gmin = 1.07374
Gmin = 0.115292
Gmin = 0.0123794
Gmin = 0.00132923
vernier = 0.5
vernier = 0.25
vernier = 0.125
Gmin = 0.000862669
vernier = 0.0625
vernier = 0.03125
vernier = 0.015625
vernier = 0.0078125
Gmin = 0.000865768
vernier = 0.00390625
vernier = 0.00195313
vernier = 0.000976563
vernier = 0.000488281
Gmin = 0.00086524
Gmin = 0
Gmin stepping failed

Starting source stepping with srcstepmethod=0
Source Step = 3.0303%
Source Step = 33.3333%
Source Step = 40.0568%
Source Step = 40.5303%
Source Step = 41.0038%
Source Step = 41.3944%
vernier = 0.000976563
Source Step = 41.4122%
Source Step = 41.4418%
Source Step = 41.4714%
Source Step = 41.5009%
Source Step = 41.5305%
vernier = 0.00146484
Source Step = 41.5705%
Source Step = 41.6149%
Source Step = 41.6593%
Source Step = 41.7037%
Source Step = 41.748%
vernier = 0.00219727
Source Step = 41.8058%
Source Step = 41.8723%
Source Step = 41.9389%
Source Step = 42.0055%
Source Step = 42.0721%
vernier = 0.0032959
Source Step = 42.1553%
Source Step = 42.2552%
Source Step = 42.3551%
Source Step = 42.4549%
Source Step = 42.5548%
vernier = 0.00494385
Source Step = 42.6747%
Source Step = 42.8245%
Source Step = 42.9743%
Source Step = 43.1241%
Source Step = 43.2739%
vernier = 0.00741577
Source Step = 43.4462%
Source Step = 43.6709%
Source Step = 43.8957%
Source Step = 44.1204%
Source Step = 44.3451%
vernier = 0.0111237
Source Step = 44.5923%
Source Step = 44.9294%
Source Step = 45.2664%
Source Step = 45.6035%
Source Step = 45.9406%
vernier = 0.0166855
Source Step = 46.2945%
Source Step = 46.8002%
Source Step = 47.3058%
Source Step = 47.8114%
Source Step = 48.317%
Source Step = 48.8226%
vernier = 0.0250282
Source Step = 49.5811%
Source Step = 50.3395%
Source Step = 51.0979%
Source Step = 51.8564%
Source Step = 52.6148%
vernier = 0.0375423
Source Step = 53.7145%
Source Step = 54.8522%
Source Step = 55.9898%
Source Step = 57.1275%
Source Step = 58.2651%
vernier = 0.0563135
Source Step = 59.8578%
Source Step = 61.5643%
Source Step = 63.2708%
Source Step = 64.9772%
Source Step = 66.6837%
vernier = 0.0844703
Source Step = 68.9874%
Source Step = 71.5471%
Source Step = 74.1068%
Source Step = 76.6666%
Source Step = 79.2263%
vernier = 0.126705
Source Step = 82.5539%
Source Step = 86.3934%
Source Step = 90.233%
Source Step = 90.6529%
Source Step = 90.7129%
Source Step = 90.7729%
Source Step = 90.8329%
Source Step = 90.8929%
Source Step = 90.9529%
Source Step = 91.0129%
Source Step = 91.0729%
Source Step = 91.1329%
Source Step = 91.1929%
Source Step = 91.2529%
Source Step = 91.3129%
Source Step = 91.3729%
Source Step = 91.4328%
Source Step = 91.4928%
Source Step = 91.5528%
Source Step = 91.6128%
Source Step = 91.6728%
Source Step = 91.7328%
Source Step = 91.7928%
Source Step = 91.8528%
Source Step = 91.9128%
Source Step = 91.9728%
Source Step = 92.0328%
Source Step = 92.0928%
