Circuit: * D:\Christian\Projekt\Multiphase\B_Hardware\Temperaturmessung\Simulation\LTSpice\Sallen-Key-Filter_getrieben.asc

Instance "m:u1:114": Length shorter than recommended for a level 1 MOSFET.
Instance "m:u1:113": Length shorter than recommended for a level 1 MOSFET.
Instance "m:u1:2": Length shorter than recommended for a level 1 MOSFET.
Instance "m:u1:1": Length shorter than recommended for a level 1 MOSFET.
Instance "m:u1:9c": Length shorter than recommended for a level 1 MOSFET.
Instance "m:u1:9": Length shorter than recommended for a level 1 MOSFET.
Instance "m:u1:8": Length shorter than recommended for a level 1 MOSFET.
Instance "m:u1:4": Length shorter than recommended for a level 1 MOSFET.
Instance "m:u1:3": Length shorter than recommended for a level 1 MOSFET.
Instance "m:u1:7": Length shorter than recommended for a level 1 MOSFET.
Direct Newton iteration failed to find .op point.  (Use ".option noopiter" to skip.)
Starting Gmin stepping
Gmin = 10
Gmin = 1.07374
Gmin = 0.115292
Gmin = 0.0123794
Gmin = 0.00132923
Gmin = 0.000142725
vernier = 0.5
vernier = 0.25
vernier = 0.125
vernier = 0.0625
Gmin = 0.000112423
vernier = 0.03125
vernier = 0.015625
vernier = 0.0078125
vernier = 0.00390625
Gmin = 0.000112744
vernier = 0.00195313
vernier = 0.000976563
vernier = 0.000488281
Gmin = 0
Gmin stepping succeeded in finding the operating point.


Date: Sat Jul 29 11:22:11 2017
Total elapsed time: 0.188 seconds.

tnom = 27
temp = 27
method = trap
totiter = 1518
traniter = 0
tranpoints = 0
accept = 0
rejected = 0
matrix size = 87
fillins = 109
solver = Normal
Matrix Compiler1:     694 opcodes
Matrix Compiler2: 9.68 KB object code size  0.9/1.4/[0.9]


